FoamFile
{
    version     2.0;
    format      ascii;
    class       dictionary;
    location    "constant";
    object      physicalProperties;
}

continuousPhaseName air; // 이 한 줄이 없어서 뻗은 거야

air
{
    viscosityModel  constant;
    nu              [0 2 -1 0 0 0 0] 1.5e-05;
    rho             [1 -3 0 0 0 0 0] 1.2;
}
